hassets/images/2150911817.jpgassetassets/images/2150911817.jpg+assets/images/3dicons-mail-dynamic-clay.pngasset+assets/images/3dicons-mail-dynamic-clay.png,assets/images/3dicons-tools-dynamic-clay.pngasset,assets/images/3dicons-tools-dynamic-clay.pngassets/images/5183_(1).jpgassetassets/images/5183_(1).jpgCassets/images/587798476_17842516374653000_2132197630078248768_n.jpgassetCassets/images/587798476_17842516374653000_2132197630078248768_n.jpgassets/images/8330.jpgassetassets/images/8330.jpg)assets/images/AR_LOGO_NEW_JANUARY_(1).pngasset)assets/images/AR_LOGO_NEW_JANUARY_(1).png;assets/images/AR_Labs_&_Vision_-_New_Social_Logo_-_June.pngasset;assets/images/AR_Labs_&_Vision_-_New_Social_Logo_-_June.png#assets/images/AlertNotification.svgasset#assets/images/AlertNotification.svg(assets/images/AlertNotificationLight.svgasset(assets/images/AlertNotificationLight.svg!assets/images/Bots_Activos_BG.pngasset!assets/images/Bots_Activos_BG.pngassets/images/Chip_(1).pngassetassets/images/Chip_(1).pngassets/images/Company.pngassetassets/images/Company.pngassets/images/Connek_Light.svgassetassets/images/Connek_Light.svgassets/images/Connek_Night.svgassetassets/images/Connek_Night.svgassets/images/Ellipse_11.pngassetassets/images/Ellipse_11.pngassets/images/Ellipse_12.pngassetassets/images/Ellipse_12.pngassets/images/Ellipse_13.pngassetassets/images/Ellipse_13.png assets/images/Ellipse_13_(1).pngasset assets/images/Ellipse_13_(1).png assets/images/Ellipse_13_(2).pngasset assets/images/Ellipse_13_(2).pngassets/images/Ellipse_9.pngassetassets/images/Ellipse_9.pngassets/images/EmptyEvents.pngassetassets/images/EmptyEvents.pngassets/images/GREG_CARD_1.pngassetassets/images/GREG_CARD_1.pngassets/images/Greg_BG.pngassetassets/images/Greg_BG.pngassets/images/Greg_Card_M.pngassetassets/images/Greg_Card_M.png#assets/images/Greg_Top_Bot_CArd.pngasset#assets/images/Greg_Top_Bot_CArd.pngassets/images/Greg_promo_bg.pngassetassets/images/Greg_promo_bg.pngassets/images/Icons_(24).pngassetassets/images/Icons_(24).pngassets/images/Icons_(25).pngassetassets/images/Icons_(25).png"assets/images/Interacciones_BG.pngasset"assets/images/Interacciones_BG.png assets/images/Marketplace_BG.pngasset assets/images/Marketplace_BG.png'assets/images/NotificationAvisoLigh.svgasset'assets/images/NotificationAvisoLigh.svg'assets/images/NotificationAvisoNigh.svgasset'assets/images/NotificationAvisoNigh.svg&assets/images/NotificationSugLight.svgasset&assets/images/NotificationSugLight.svg&assets/images/NotificationSugNight.svgasset&assets/images/NotificationSugNight.svg$assets/images/Nuevos_clientes_bg.pngasset$assets/images/Nuevos_clientes_bg.pngassets/images/Perfil.pngassetassets/images/Perfil.pngassets/images/Rectangle_29.pngassetassets/images/Rectangle_29.pngassets/images/Rectangle_3.pngassetassets/images/Rectangle_3.png assets/images/Search_Icon_BG.pngasset assets/images/Search_Icon_BG.png&assets/images/SeparatorBottomSheet.svgasset&assets/images/SeparatorBottomSheet.svgassets/images/SugIaButLight.svgassetassets/images/SugIaButLight.svg&assets/images/Sugerencias_IA_Night.svgasset&assets/images/Sugerencias_IA_Night.svg assets/images/Tasas_de_exito.pngasset assets/images/Tasas_de_exito.pngassets/images/WhatsApp_icon.svgassetassets/images/WhatsApp_icon.svg*assets/images/adaptive_foreground_icon.jpgasset*assets/images/adaptive_foreground_icon.jpg#assets/images/app_launcher_icon.jpgasset#assets/images/app_launcher_icon.jpg#assets/images/bgBusinessWebDark.pngasset#assets/images/bgBusinessWebDark.pngassets/images/bgNewB.pngassetassets/images/bgNewB.pngassets/images/bgbusinessWeb.pngassetassets/images/bgbusinessWeb.pngassets/images/chatback.svgassetassets/images/chatback.svg#assets/images/conneck_logo_dark.pngasset#assets/images/conneck_logo_dark.png)assets/images/conneck_logo_white copy.pngasset)assets/images/conneck_logo_white copy.png$assets/images/conneck_logo_white.pngasset$assets/images/conneck_logo_white.pngassets/images/docUpload.pngassetassets/images/docUpload.pngassets/images/emptyLead.pngassetassets/images/emptyLead.pngassets/images/emptyProducts.pngassetassets/images/emptyProducts.pngassets/images/emptyService.pngassetassets/images/emptyService.pngassets/images/error_image.pngassetassets/images/error_image.pngassets/images/exploreEmpty.pngassetassets/images/exploreEmpty.png2assets/images/f849924a0287ec9e7f8dcaceef37db54.pngasset2assets/images/f849924a0287ec9e7f8dcaceef37db54.pngassets/images/favicon.pngassetassets/images/favicon.png assets/images/fixgoogle copy.pngasset assets/images/fixgoogle copy.pngassets/images/fixgoogle.pngassetassets/images/fixgoogle.pngassets/images/flag.pngassetassets/images/flag.png+assets/images/google-my-business-logo_1.pngasset+assets/images/google-my-business-logo_1.pngassets/images/google.pngassetassets/images/google.pngassets/images/greg-bot.mp4assetassets/images/greg-bot.mp4assets/images/individual.pngassetassets/images/individual.pngassets/images/leftDark.pngassetassets/images/leftDark.pngassets/images/leftLight.pngassetassets/images/leftLight.pngassets/images/loginWeb copy.pngassetassets/images/loginWeb copy.pngassets/images/loginWeb.pngassetassets/images/loginWeb.pngassets/images/logoInsta.pngassetassets/images/logoInsta.pngassets/images/logoWsp copy.pngassetassets/images/logoWsp copy.pngassets/images/logoWsp.pngassetassets/images/logoWsp.png(assets/images/logo_connek_definitivo.jpgasset(assets/images/logo_connek_definitivo.jpg assets/images/logoapple copy.pngasset assets/images/logoapple copy.pngassets/images/logoapple.pngassetassets/images/logoapple.pngassets/images/logofb copy.pngassetassets/images/logofb copy.pngassets/images/logofb.pngassetassets/images/logofb.png#assets/images/mesh-gradient_(7).pngasset#assets/images/mesh-gradient_(7).pngassets/images/monitor.pngassetassets/images/monitor.pngassets/images/mountain.pngassetassets/images/mountain.pngassets/images/note.pngassetassets/images/note.pngassets/images/regis copy.pngassetassets/images/regis copy.pngassets/images/regis.pngassetassets/images/regis.pngassets/images/rightDark.pngassetassets/images/rightDark.pngassets/images/rightLight.pngassetassets/images/rightLight.pngassets/images/socialempty.pngassetassets/images/socialempty.pngassets/images/sunEmoji.pngassetassets/images/sunEmoji.pngassets/images/superconnek.jpgassetassets/images/superconnek.jpg+assets/images/top-view-man-relaxing-spa.jpgasset+assets/images/top-view-man-relaxing-spa.jpgassets/lang/lang_english.jsonassetassets/lang/lang_english.jsonassets/lang/lang_french.jsonassetassets/lang/lang_french.jsonassets/lang/lang_russian.jsonassetassets/lang/lang_russian.jsonassets/lang/lang_spanish.jsonassetassets/lang/lang_spanish.json2packages/cupertino_icons/assets/CupertinoIcons.ttfasset2packages/cupertino_icons/assets/CupertinoIcons.ttfMpackages/liquid_glass_renderer/lib/assets/shaders/liquid_glass_arbitrary.fragassetMpackages/liquid_glass_renderer/lib/assets/shaders/liquid_glass_arbitrary.fragJpackages/liquid_glass_renderer/lib/assets/shaders/liquid_glass_filter.fragassetJpackages/liquid_glass_renderer/lib/assets/shaders/liquid_glass_filter.fragPpackages/liquid_glass_renderer/lib/assets/shaders/liquid_glass_final_render.fragassetPpackages/liquid_glass_renderer/lib/assets/shaders/liquid_glass_final_render.fragTpackages/liquid_glass_renderer/lib/assets/shaders/liquid_glass_geometry_blended.fragassetTpackages/liquid_glass_renderer/lib/assets/shaders/liquid_glass_geometry_blended.frag7packages/record_web/assets/js/record.fixwebmduration.jsasset7packages/record_web/assets/js/record.fixwebmduration.js/packages/record_web/assets/js/record.worklet.jsasset/packages/record_web/assets/js/record.worklet.js